8
mol_1                                            Eopt   -476.763367
C    -0.700063    -0.000060    -0.322327
C     0.700077    -0.000093     0.322334
F     1.383558    -1.082785    -0.091705
F     1.383491     1.082793    -0.091417
F    -1.383658    -1.082705     0.091703
F    -1.383406     1.082846     0.091412
H    -0.651525    -0.000209    -1.421574
H     0.651572    -0.000220     1.421583
